
 OpenBabel07031919063D

 11 10  0  0  0  0  0  0  0  0999 V2000
    1.2552    0.1131   -0.2320 C   0  0  0  0  0  0  0  0  0  0  0  0
    0.0238   -0.1978    0.5769 C   0  0  0  0  0  0  0  0  0  0  0  0
   -1.2566    0.0892   -0.1828 C   0  0  0  0  0  0  0  0  0  0  0  0
    1.6013    1.1544   -0.1240 H   0  0  0  0  0  0  0  0  0  0  0  0
    2.0680   -0.5653    0.0883 H   0  0  0  0  0  0  0  0  0  0  0  0
    0.9996   -0.0925   -1.2971 H   0  0  0  0  0  0  0  0  0  0  0  0
    0.0402   -1.3054    0.7614 H   0  0  0  0  0  0  0  0  0  0  0  0
    0.0191    0.2696    1.5740 H   0  0  0  0  0  0  0  0  0  0  0  0
   -1.9812    0.5638    0.5112 H   0  0  0  0  0  0  0  0  0  0  0  0
   -1.6841   -0.8290   -0.6502 H   0  0  0  0  0  0  0  0  0  0  0  0
   -1.0852    0.7999   -1.0258 H   0  0  0  0  0  0  0  0  0  0  0  0
  1  2  1  0  0  0  0
  1  4  1  0  0  0  0
  1  5  1  0  0  0  0
  1  6  1  0  0  0  0
  2  3  1  0  0  0  0
  2  7  1  0  0  0  0
  2  8  1  0  0  0  0
  3  9  1  0  0  0  0
  3 10  1  0  0  0  0
  3 11  1  0  0  0  0
M  END
$$$$
