
     RDKit          3D

  8  7  0  0  0  0  0  0  0  0999 V2000
    0.7410    0.0021   -0.0022 C   0  0  0  0  0  0  0  0  0  0  0  0
   -0.7601   -0.0243    0.0803 C   0  0  0  0  0  0  0  0  0  0  0  0
    0.9948    0.2570   -1.0699 H   0  0  0  0  0  0  0  0  0  0  0  0
    1.2013   -0.9988    0.1676 H   0  0  0  0  0  0  0  0  0  0  0  0
    1.2026    0.7793    0.6252 H   0  0  0  0  0  0  0  0  0  0  0  0
   -1.1489   -0.1023    1.0984 H   0  0  0  0  0  0  0  0  0  0  0  0
   -1.1145   -0.8580   -0.5448 H   0  0  0  0  0  0  0  0  0  0  0  0
   -1.1163    0.9451   -0.3546 H   0  0  0  0  0  0  0  0  0  0  0  0
  1  2  1  0
  1  3  1  0
  1  4  1  0
  1  5  1  0
  2  6  1  0
  2  7  1  0
  2  8  1  0
M  END
