
     RDKit          3D

 17 16  0  0  0  0  0  0  0  0999 V2000
   -0.9820   -1.2253    0.1715 C   0  0  0  0  0  0  0  0  0  0  0  0
   -0.4627    0.0416   -0.4548 C   0  0  0  0  0  0  0  0  0  0  0  0
   -1.5072    1.1136   -0.2116 C   0  0  0  0  0  0  0  0  0  0  0  0
    0.8208    0.5192    0.1784 C   0  0  0  0  0  0  0  0  0  0  0  0
    1.9254   -0.5210    0.0482 C   0  0  0  0  0  0  0  0  0  0  0  0
    3.6539    0.3211    0.9933 I   0  0  0  0  0  0  0  0  0  0  0  0
   -1.9239   -1.4837   -0.3567 H   0  0  0  0  0  0  0  0  0  0  0  0
   -0.2917   -2.0735    0.0893 H   0  0  0  0  0  0  0  0  0  0  0  0
   -1.2595   -0.9767    1.2239 H   0  0  0  0  0  0  0  0  0  0  0  0
   -0.2920   -0.1486   -1.5252 H   0  0  0  0  0  0  0  0  0  0  0  0
   -2.1840    0.8501    0.6387 H   0  0  0  0  0  0  0  0  0  0  0  0
   -1.0321    2.0913    0.0863 H   0  0  0  0  0  0  0  0  0  0  0  0
   -2.1117    1.3300   -1.1166 H   0  0  0  0  0  0  0  0  0  0  0  0
    0.6903    0.8784    1.2018 H   0  0  0  0  0  0  0  0  0  0  0  0
    1.1645    1.3949   -0.4255 H   0  0  0  0  0  0  0  0  0  0  0  0
    2.1456   -0.6257   -1.0508 H   0  0  0  0  0  0  0  0  0  0  0  0
    1.6463   -1.4856    0.5097 H   0  0  0  0  0  0  0  0  0  0  0  0
  1  2  1  0
  2  3  1  0
  2  4  1  0
  4  5  1  0
  5  6  1  0
  1  7  1  0
  1  8  1  0
  1  9  1  0
  2 10  1  0
  3 11  1  0
  3 12  1  0
  3 13  1  0
  4 14  1  0
  4 15  1  0
  5 16  1  0
  5 17  1  0
M  END
