
 OpenBabel07041902533D

 39 41  0  0  0  0  0  0  0  0999 V2000
    2.9977   -0.6009   -0.8067 C   0  0  0  0  0  0  0  0  0  0  0  0
    1.9307   -0.1614    0.1242 C   0  0  0  0  0  0  0  0  0  0  0  0
    2.2668   -0.5948    1.5282 C   0  0  0  0  0  0  0  0  0  0  0  0
    0.5856   -0.7381   -0.1949 C   0  0  0  0  0  0  0  0  0  0  0  0
    0.1042   -1.9271   -0.4980 C   0  0  0  0  0  0  0  0  0  0  0  0
   -1.3110   -2.2279   -0.7749 C   0  0  0  0  0  0  0  0  0  0  0  0
   -2.2416   -1.0883   -0.5889 C   0  0  0  0  0  0  0  0  0  0  0  0
   -1.7395    0.0265    0.2564 C   0  0  0  0  0  0  0  0  0  0  0  0
   -1.8109   -0.3367    1.7211 C   0  0  0  0  0  0  0  0  0  0  0  0
   -2.6541    1.2204    0.0539 C   0  0  0  0  0  0  0  0  0  0  0  0
   -0.3779    0.3956   -0.1261 C   0  0  2  0  0  0  0  0  0  0  0  0
   -0.2300    1.1910   -1.3862 C   0  0  0  0  0  0  0  0  0  0  0  0
    1.1710    1.7971   -1.2322 C   0  0  0  0  0  0  0  0  0  0  0  0
    1.6676    1.3147    0.1265 C   0  0  1  0  0  0  0  0  0  0  0  0
    0.3194    1.3335    0.8715 C   0  0  0  0  0  0  0  0  0  0  0  0
    2.6771   -0.8727   -1.8137 H   0  0  0  0  0  0  0  0  0  0  0  0
    3.5453   -1.4854   -0.3668 H   0  0  0  0  0  0  0  0  0  0  0  0
    3.7804    0.2117   -0.8326 H   0  0  0  0  0  0  0  0  0  0  0  0
    2.8761   -1.5187    1.4530 H   0  0  0  0  0  0  0  0  0  0  0  0
    2.8041    0.1832    2.0825 H   0  0  0  0  0  0  0  0  0  0  0  0
    1.3444   -0.8958    2.0999 H   0  0  0  0  0  0  0  0  0  0  0  0
    0.8040   -2.7607   -0.5497 H   0  0  0  0  0  0  0  0  0  0  0  0
   -1.3706   -2.5842   -1.8439 H   0  0  0  0  0  0  0  0  0  0  0  0
   -1.6462   -3.1060   -0.1697 H   0  0  0  0  0  0  0  0  0  0  0  0
   -2.5060   -0.6525   -1.5939 H   0  0  0  0  0  0  0  0  0  0  0  0
   -3.2156   -1.4372   -0.1522 H   0  0  0  0  0  0  0  0  0  0  0  0
   -2.8403   -0.6839    1.9561 H   0  0  0  0  0  0  0  0  0  0  0  0
   -1.5631    0.5407    2.3295 H   0  0  0  0  0  0  0  0  0  0  0  0
   -1.0700   -1.1468    1.8947 H   0  0  0  0  0  0  0  0  0  0  0  0
   -3.1075    1.2325   -0.9406 H   0  0  0  0  0  0  0  0  0  0  0  0
   -2.0795    2.1522    0.2955 H   0  0  0  0  0  0  0  0  0  0  0  0
   -3.4669    1.1801    0.8194 H   0  0  0  0  0  0  0  0  0  0  0  0
   -0.9926    1.9680   -1.5041 H   0  0  0  0  0  0  0  0  0  0  0  0
   -0.2681    0.5239   -2.2790 H   0  0  0  0  0  0  0  0  0  0  0  0
    1.8338    1.4776   -2.0532 H   0  0  0  0  0  0  0  0  0  0  0  0
    1.0429    2.8885   -1.1548 H   0  0  0  0  0  0  0  0  0  0  0  0
    2.4129    1.9371    0.5772 H   0  0  0  0  0  0  0  0  0  0  0  0
    0.3979    0.8973    1.8609 H   0  0  0  0  0  0  0  0  0  0  0  0
   -0.0707    2.3475    0.8113 H   0  0  0  0  0  0  0  0  0  0  0  0
  1  2  1  0  0  0  0
  1 16  1  0  0  0  0
  1 17  1  0  0  0  0
  1 18  1  0  0  0  0
  2  3  1  0  0  0  0
  2  4  1  0  0  0  0
  3 19  1  0  0  0  0
  3 20  1  0  0  0  0
  3 21  1  0  0  0  0
  4  5  2  0  0  0  0
  5  6  1  0  0  0  0
  5 22  1  0  0  0  0
  6  7  1  0  0  0  0
  6 23  1  0  0  0  0
  6 24  1  0  0  0  0
  7  8  1  0  0  0  0
  7 25  1  0  0  0  0
  7 26  1  0  0  0  0
  8  9  1  0  0  0  0
  8 10  1  0  0  0  0
  9 27  1  0  0  0  0
  9 28  1  0  0  0  0
  9 29  1  0  0  0  0
 10 30  1  0  0  0  0
 10 31  1  0  0  0  0
 10 32  1  0  0  0  0
 11  8  1  1  0  0  0
 11 12  1  0  0  0  0
 11  4  1  0  0  0  0
 12 13  1  0  0  0  0
 12 33  1  0  0  0  0
 12 34  1  0  0  0  0
 13 14  1  0  0  0  0
 13 35  1  0  0  0  0
 13 36  1  0  0  0  0
 14 15  1  0  0  0  0
 14  2  1  0  0  0  0
 14 37  1  1  0  0  0
 15 11  1  0  0  0  0
 15 38  1  0  0  0  0
 15 39  1  0  0  0  0
M  END
$$$$
