
     RDKit          3D

 14 14  0  0  0  0  0  0  0  0999 V2000
   -3.2908   -2.0482    0.0354 N   0  0  0  0  0  0  0  0  0  0  0  0
   -2.3448   -1.3774    0.0249 C   0  0  0  0  0  0  0  0  0  0  0  0
   -1.1744   -0.5389    0.0150 C   0  0  0  0  0  0  0  0  0  0  0  0
   -1.2561    0.8477    0.0443 C   0  0  0  0  0  0  0  0  0  0  0  0
   -2.8730    1.5292    0.0944 Cl  0  0  0  0  0  0  0  0  0  0  0  0
   -0.1539    1.6564    0.0355 C   0  0  0  0  0  0  0  0  0  0  0  0
   -0.3215    3.3863    0.0735 Cl  0  0  0  0  0  0  0  0  0  0  0  0
    1.0881    1.0561   -0.0045 C   0  0  0  0  0  0  0  0  0  0  0  0
    2.5534    2.0441   -0.0180 Cl  0  0  0  0  0  0  0  0  0  0  0  0
    1.2442   -0.3211   -0.0353 C   0  0  0  0  0  0  0  0  0  0  0  0
    2.5540   -0.9305   -0.0769 C   0  0  0  0  0  0  0  0  0  0  0  0
    3.6183   -1.4087   -0.1015 N   0  0  0  0  0  0  0  0  0  0  0  0
    0.0915   -1.0768   -0.0242 C   0  0  0  0  0  0  0  0  0  0  0  0
    0.2649   -2.8184   -0.0626 Cl  0  0  0  0  0  0  0  0  0  0  0  0
  1  2  3  0
  2  3  1  0
  3  4  2  0
  4  5  1  0
  4  6  1  0
  6  7  1  0
  6  8  2  0
  8  9  1  0
  8 10  1  0
 10 11  1  0
 11 12  3  0
 10 13  2  0
 13 14  1  0
 13  3  1  0
M  END
