
     RDKit          3D

 37 39  0  0  0  0  0  0  0  0999 V2000
   -2.2391    4.5528   -0.5101 C   0  0  0  0  0  0  0  0  0  0  0  0
   -1.7376    4.2874    0.7484 C   0  0  0  0  0  0  0  0  0  0  0  0
   -1.0276    3.1198    1.0231 C   0  0  0  0  0  0  0  0  0  0  0  0
   -0.8057    2.1884    0.0311 C   0  0  0  0  0  0  0  0  0  0  0  0
   -0.0975    1.0168    0.2919 O   0  0  0  0  0  0  0  0  0  0  0  0
    0.1556   -0.1338   -1.0078 P   0  0  0  0  0  0  0  0  0  0  0  0
   -1.3339   -0.9694   -1.3141 O   0  0  0  0  0  0  0  0  0  0  0  0
   -1.8832   -1.9257   -0.4656 C   0  0  0  0  0  0  0  0  0  0  0  0
   -1.5690   -3.2611   -0.6058 C   0  0  0  0  0  0  0  0  0  0  0  0
   -2.1008   -4.2314    0.2238 C   0  0  0  0  0  0  0  0  0  0  0  0
   -2.9765   -3.8928    1.2350 C   0  0  0  0  0  0  0  0  0  0  0  0
   -3.2921   -2.5568    1.3767 C   0  0  0  0  0  0  0  0  0  0  0  0
   -2.7597   -1.5871    0.5465 C   0  0  0  0  0  0  0  0  0  0  0  0
    1.3941   -1.2944   -0.6068 O   0  0  0  0  0  0  0  0  0  0  0  0
    2.6952   -0.8570   -0.3303 C   0  0  0  0  0  0  0  0  0  0  0  0
    2.9989   -0.5562    0.9725 C   0  0  0  0  0  0  0  0  0  0  0  0
    4.2750   -0.1212    1.2805 C   0  0  0  0  0  0  0  0  0  0  0  0
    5.1889   -0.0077    0.2665 C   0  0  0  0  0  0  0  0  0  0  0  0
    4.8788   -0.3100   -1.0339 C   0  0  0  0  0  0  0  0  0  0  0  0
    3.6048   -0.7473   -1.3600 C   0  0  0  0  0  0  0  0  0  0  0  0
   -1.3073    2.4545   -1.2265 C   0  0  0  0  0  0  0  0  0  0  0  0
   -2.0104    3.6090   -1.5016 C   0  0  0  0  0  0  0  0  0  0  0  0
   -2.7939    5.4512   -0.7512 H   0  0  0  0  0  0  0  0  0  0  0  0
   -1.9198    5.0257    1.5128 H   0  0  0  0  0  0  0  0  0  0  0  0
   -0.6405    2.9251    2.0140 H   0  0  0  0  0  0  0  0  0  0  0  0
   -0.8800   -3.5157   -1.4035 H   0  0  0  0  0  0  0  0  0  0  0  0
   -1.8497   -5.2638    0.1055 H   0  0  0  0  0  0  0  0  0  0  0  0
   -3.3977   -4.6466    1.8893 H   0  0  0  0  0  0  0  0  0  0  0  0
   -3.9765   -2.2996    2.1684 H   0  0  0  0  0  0  0  0  0  0  0  0
   -3.0212   -0.5441    0.6757 H   0  0  0  0  0  0  0  0  0  0  0  0
    2.2465   -0.6617    1.7319 H   0  0  0  0  0  0  0  0  0  0  0  0
    4.5217    0.1178    2.3056 H   0  0  0  0  0  0  0  0  0  0  0  0
    6.2095    0.3348    0.4796 H   0  0  0  0  0  0  0  0  0  0  0  0
    5.5986   -0.2232   -1.8482 H   0  0  0  0  0  0  0  0  0  0  0  0
    3.3772   -0.9817   -2.3924 H   0  0  0  0  0  0  0  0  0  0  0  0
   -1.1438    1.7353   -2.0200 H   0  0  0  0  0  0  0  0  0  0  0  0
   -2.3814    3.7697   -2.5008 H   0  0  0  0  0  0  0  0  0  0  0  0
  1  2  2  0
  2  3  1  0
  3  4  2  0
  4  5  1  0
  5  6  1  0
  6  7  1  0
  7  8  1  0
  8  9  2  0
  9 10  1  0
 10 11  2  0
 11 12  1  0
 12 13  2  0
  6 14  1  0
 14 15  1  0
 15 16  2  0
 16 17  1  0
 17 18  2  0
 18 19  1  0
 19 20  2  0
  4 21  1  0
 21 22  2  0
 22  1  1  0
 13  8  1  0
 20 15  1  0
  1 23  1  0
  2 24  1  0
  3 25  1  0
  9 26  1  0
 10 27  1  0
 11 28  1  0
 12 29  1  0
 13 30  1  0
 16 31  1  0
 17 32  1  0
 18 33  1  0
 19 34  1  0
 20 35  1  0
 21 36  1  0
 22 37  1  0
M  END
