
     RDKit          3D

 66 69  0  0  0  0  0  0  0  0999 V2000
   -1.8728    0.5358   -2.3985 N   0  0  0  0  0  0  0  0  0  0  0  0
   -2.4065    0.4321   -1.3633 C   0  0  0  0  0  0  0  0  0  0  0  0
   -3.0896    0.2970   -0.1088 C   0  0  0  0  0  0  0  0  0  0  0  0
   -2.2192    0.3386    1.0913 C   0  0  0  0  0  0  0  0  0  0  0  0
   -1.1487   -0.6705    1.2096 C   0  0  0  0  0  0  0  0  0  0  0  0
   -0.1222   -0.5310    0.1898 N   0  0  0  0  0  0  0  0  0  0  0  0
    0.7435   -1.6702    0.1432 C   0  0  0  0  0  0  0  0  0  0  0  0
    2.1142   -1.5851    0.6284 C   0  0  0  0  0  0  0  0  0  0  0  0
    2.8401   -0.2931    0.5438 C   0  0  0  0  0  0  0  0  0  0  0  0
    2.9659    0.2602    1.9116 C   0  0  0  0  0  0  0  0  0  0  0  0
    4.0165    1.1719    2.1889 N   0  0  0  0  0  0  0  0  0  0  0  0
    2.1706   -0.0616    2.7978 O   0  0  0  0  0  0  0  0  0  0  0  0
    4.1443   -0.3221   -0.0109 N   0  0  0  0  0  0  0  0  0  0  0  0
    5.1332   -1.0980    0.6261 C   0  0  0  0  0  0  0  0  0  0  0  0
    6.4770   -0.4538    0.5026 C   0  0  0  0  0  0  0  0  0  0  0  0
    6.7273    0.3648   -0.7025 C   0  0  0  0  0  0  0  0  0  0  0  0
    5.5500    0.8520   -1.4622 C   0  0  0  0  0  0  0  0  0  0  0  0
    4.3653   -0.1392   -1.3760 C   0  0  0  0  0  0  0  0  0  0  0  0
    1.9629    0.6541   -0.2599 C   0  0  0  0  0  0  0  0  0  0  0  0
    0.6129    0.7115    0.3885 C   0  0  0  0  0  0  0  0  0  0  0  0
   -3.9354   -0.9111   -0.1949 C   0  0  0  0  0  0  0  0  0  0  0  0
   -4.2759   -1.7154    0.8618 C   0  0  0  0  0  0  0  0  0  0  0  0
   -5.0892   -2.8302    0.6648 C   0  0  0  0  0  0  0  0  0  0  0  0
   -5.5768   -3.1641   -0.5847 C   0  0  0  0  0  0  0  0  0  0  0  0
   -5.2288   -2.3508   -1.6383 C   0  0  0  0  0  0  0  0  0  0  0  0
   -4.4328   -1.2633   -1.4321 C   0  0  0  0  0  0  0  0  0  0  0  0
   -4.0830    1.4360    0.0657 C   0  0  0  0  0  0  0  0  0  0  0  0
   -4.8325    1.4412    1.1876 C   0  0  0  0  0  0  0  0  0  0  0  0
   -5.7423    2.4900    1.3537 C   0  0  0  0  0  0  0  0  0  0  0  0
   -5.8645    3.4799    0.4032 C   0  0  0  0  0  0  0  0  0  0  0  0
   -5.0756    3.4391   -0.7364 C   0  0  0  0  0  0  0  0  0  0  0  0
   -4.1856    2.4066   -0.8926 C   0  0  0  0  0  0  0  0  0  0  0  0
   -2.8050    0.3262    2.0403 H   0  0  0  0  0  0  0  0  0  0  0  0
   -1.7370    1.3632    1.1063 H   0  0  0  0  0  0  0  0  0  0  0  0
   -1.4795   -1.7139    1.1793 H   0  0  0  0  0  0  0  0  0  0  0  0
   -0.6445   -0.5337    2.1936 H   0  0  0  0  0  0  0  0  0  0  0  0
    0.2179   -2.4857    0.7271 H   0  0  0  0  0  0  0  0  0  0  0  0
    0.6810   -2.0590   -0.9178 H   0  0  0  0  0  0  0  0  0  0  0  0
    2.2094   -2.0382    1.6668 H   0  0  0  0  0  0  0  0  0  0  0  0
    2.7298   -2.3206    0.0089 H   0  0  0  0  0  0  0  0  0  0  0  0
    4.4308    1.2459    3.1503 H   0  0  0  0  0  0  0  0  0  0  0  0
    4.4235    1.8057    1.4529 H   0  0  0  0  0  0  0  0  0  0  0  0
    5.1513   -2.1674    0.2911 H   0  0  0  0  0  0  0  0  0  0  0  0
    4.9168   -1.1830    1.7339 H   0  0  0  0  0  0  0  0  0  0  0  0
    6.7450    0.0833    1.4518 H   0  0  0  0  0  0  0  0  0  0  0  0
    7.2494   -1.2932    0.4821 H   0  0  0  0  0  0  0  0  0  0  0  0
    7.2817    1.2939   -0.3594 H   0  0  0  0  0  0  0  0  0  0  0  0
    7.4694   -0.1020   -1.4137 H   0  0  0  0  0  0  0  0  0  0  0  0
    5.8119    1.0701   -2.5099 H   0  0  0  0  0  0  0  0  0  0  0  0
    5.1440    1.7920   -1.0110 H   0  0  0  0  0  0  0  0  0  0  0  0
    4.7664   -1.0818   -1.8607 H   0  0  0  0  0  0  0  0  0  0  0  0
    3.5993    0.2894   -2.0112 H   0  0  0  0  0  0  0  0  0  0  0  0
    1.7982    0.2589   -1.2949 H   0  0  0  0  0  0  0  0  0  0  0  0
    2.3836    1.6791   -0.2827 H   0  0  0  0  0  0  0  0  0  0  0  0
    0.1003    1.5886   -0.1275 H   0  0  0  0  0  0  0  0  0  0  0  0
    0.6354    1.0057    1.4445 H   0  0  0  0  0  0  0  0  0  0  0  0
   -3.9209   -1.4982    1.8401 H   0  0  0  0  0  0  0  0  0  0  0  0
   -5.3662   -3.4730    1.4824 H   0  0  0  0  0  0  0  0  0  0  0  0
   -6.2100   -4.0232   -0.7696 H   0  0  0  0  0  0  0  0  0  0  0  0
   -5.5881   -2.5774   -2.6339 H   0  0  0  0  0  0  0  0  0  0  0  0
   -4.1945   -0.6555   -2.3236 H   0  0  0  0  0  0  0  0  0  0  0  0
   -4.7994    0.7182    1.9680 H   0  0  0  0  0  0  0  0  0  0  0  0
   -6.3757    2.5538    2.2331 H   0  0  0  0  0  0  0  0  0  0  0  0
   -6.5617    4.3174    0.4838 H   0  0  0  0  0  0  0  0  0  0  0  0
   -5.1276    4.1868   -1.5149 H   0  0  0  0  0  0  0  0  0  0  0  0
   -3.5774    2.3762   -1.7733 H   0  0  0  0  0  0  0  0  0  0  0  0
  1  2  3  0
  2  3  1  0
  3  4  1  0
  4  5  1  0
  5  6  1  0
  6  7  1  0
  7  8  1  0
  8  9  1  0
  9 10  1  0
 10 11  1  0
 10 12  2  0
  9 13  1  0
 13 14  1  0
 14 15  1  0
 15 16  1  0
 16 17  1  0
 17 18  1  0
  9 19  1  0
 19 20  1  0
  3 21  1  0
 21 22  2  0
 22 23  1  0
 23 24  2  0
 24 25  1  0
 25 26  2  0
  3 27  1  0
 27 28  2  0
 28 29  1  0
 29 30  2  0
 30 31  1  0
 31 32  2  0
 20  6  1  0
 26 21  1  0
 32 27  1  0
 18 13  1  0
  4 33  1  0
  4 34  1  0
  5 35  1  0
  5 36  1  0
  7 37  1  0
  7 38  1  0
  8 39  1  0
  8 40  1  0
 11 41  1  0
 11 42  1  0
 14 43  1  0
 14 44  1  0
 15 45  1  0
 15 46  1  0
 16 47  1  0
 16 48  1  0
 17 49  1  0
 17 50  1  0
 18 51  1  0
 18 52  1  0
 19 53  1  0
 19 54  1  0
 20 55  1  0
 20 56  1  0
 22 57  1  0
 23 58  1  0
 24 59  1  0
 25 60  1  0
 26 61  1  0
 28 62  1  0
 29 63  1  0
 30 64  1  0
 31 65  1  0
 32 66  1  0
M  END
