
     RDKit          3D

 22 23  0  0  0  0  0  0  0  0999 V2000
    3.4290    1.1880    1.5199 O   0  0  0  0  0  0  0  0  0  0  0  0
    3.2655    0.0552    0.5503 S   0  0  0  0  0  0  0  0  0  0  0  0
    3.8736   -1.2046    1.1291 O   0  0  0  0  0  0  0  0  0  0  0  0
    4.0299    0.3547   -0.8968 O   0  0  0  0  0  0  0  0  0  0  0  0
    1.5793   -0.2986    0.2482 C   0  0  0  0  0  0  0  0  0  0  0  0
    1.1419   -1.5822    0.0238 C   0  0  0  0  0  0  0  0  0  0  0  0
   -0.1940   -1.8129   -0.2095 C   0  0  0  0  0  0  0  0  0  0  0  0
   -1.0885   -0.7622   -0.2180 C   0  0  0  0  0  0  0  0  0  0  0  0
   -2.4439   -0.9534   -0.4495 C   0  0  0  0  0  0  0  0  0  0  0  0
   -3.3230    0.1086   -0.4543 C   0  0  0  0  0  0  0  0  0  0  0  0
   -2.9080    1.4041   -0.2320 C   0  0  0  0  0  0  0  0  0  0  0  0
   -1.5641    1.6091   -0.0006 C   0  0  0  0  0  0  0  0  0  0  0  0
   -0.6862    0.5442    0.0037 C   0  0  0  0  0  0  0  0  0  0  0  0
    0.6626    0.7219    0.2325 C   0  0  0  0  0  0  0  0  0  0  0  0
    3.9284    1.3006   -1.1385 H   0  0  0  0  0  0  0  0  0  0  0  0
    1.8419   -2.4000    0.0311 H   0  0  0  0  0  0  0  0  0  0  0  0
   -0.5727   -2.8269   -0.3918 H   0  0  0  0  0  0  0  0  0  0  0  0
   -2.7654   -1.9880   -0.6256 H   0  0  0  0  0  0  0  0  0  0  0  0
   -4.3638   -0.0662   -0.6355 H   0  0  0  0  0  0  0  0  0  0  0  0
   -3.6162    2.2276   -0.2398 H   0  0  0  0  0  0  0  0  0  0  0  0
   -1.1890    2.6138    0.1800 H   0  0  0  0  0  0  0  0  0  0  0  0
    0.9628    1.7674    0.4066 H   0  0  0  0  0  0  0  0  0  0  0  0
  1  2  2  0
  2  3  2  0
  2  4  1  0
  2  5  1  0
  5  6  2  0
  6  7  1  0
  7  8  2  0
  8  9  1  0
  9 10  2  0
 10 11  1  0
 11 12  2  0
 12 13  1  0
 13 14  2  0
 14  5  1  0
 13  8  1  0
  4 15  1  0
  6 16  1  0
  7 17  1  0
  9 18  1  0
 10 19  1  0
 11 20  1  0
 12 21  1  0
 14 22  1  0
M  END
