
     RDKit          3D

 26 26  0  0  0  0  0  0  0  0999 V2000
    3.8642    0.2714    0.8723 C   0  0  0  0  0  0  0  0  0  0  0  0
    2.6157   -0.0951    0.6385 C   0  0  0  0  0  0  0  0  0  0  0  0
    2.1575   -1.4666    0.9733 C   0  0  0  0  0  0  0  0  0  0  0  0
    1.7093    0.8677    0.0509 C   0  0  0  0  0  0  0  0  0  0  0  0
    2.0973    2.0366   -0.2352 O   0  0  0  0  0  0  0  0  0  0  0  0
    0.3809    0.5962   -0.2382 O   0  0  0  0  0  0  0  0  0  0  0  0
   -0.4862    1.5500   -0.8114 C   0  0  0  0  0  0  0  0  0  0  0  0
   -1.8754    0.9991   -1.0229 C   0  0  0  0  0  0  0  0  0  0  0  0
   -2.5121    0.5620    0.2646 C   0  0  0  0  0  0  0  0  0  0  0  0
   -2.3444   -0.9296    0.2745 C   0  0  0  0  0  0  0  0  0  0  0  0
   -1.7745   -1.2274   -1.0890 C   0  0  0  0  0  0  0  0  0  0  0  0
   -1.9125   -0.0880   -1.8523 O   0  0  0  0  0  0  0  0  0  0  0  0
    4.5596   -0.4546    1.3188 H   0  0  0  0  0  0  0  0  0  0  0  0
    4.2675    1.2294    0.6624 H   0  0  0  0  0  0  0  0  0  0  0  0
    1.2399   -1.4644    1.5940 H   0  0  0  0  0  0  0  0  0  0  0  0
    2.9391   -1.9762    1.5872 H   0  0  0  0  0  0  0  0  0  0  0  0
    2.0271   -2.0869    0.0599 H   0  0  0  0  0  0  0  0  0  0  0  0
   -0.5457    2.4003   -0.1022 H   0  0  0  0  0  0  0  0  0  0  0  0
   -0.1154    1.9603   -1.7720 H   0  0  0  0  0  0  0  0  0  0  0  0
   -2.5229    1.7871   -1.4591 H   0  0  0  0  0  0  0  0  0  0  0  0
   -2.0653    1.0519    1.1566 H   0  0  0  0  0  0  0  0  0  0  0  0
   -3.5982    0.7794    0.2471 H   0  0  0  0  0  0  0  0  0  0  0  0
   -1.7218   -1.3073    1.1008 H   0  0  0  0  0  0  0  0  0  0  0  0
   -3.3359   -1.4620    0.3268 H   0  0  0  0  0  0  0  0  0  0  0  0
   -2.3431   -2.0385   -1.6141 H   0  0  0  0  0  0  0  0  0  0  0  0
   -0.7046   -1.4949   -0.9660 H   0  0  0  0  0  0  0  0  0  0  0  0
  1  2  2  3
  2  3  1  0
  2  4  1  0
  4  5  2  0
  4  6  1  0
  6  7  1  0
  7  8  1  0
  8  9  1  0
  9 10  1  0
 10 11  1  0
 11 12  1  0
 12  8  1  0
  1 13  1  0
  1 14  1  0
  3 15  1  0
  3 16  1  0
  3 17  1  0
  7 18  1  0
  7 19  1  0
  8 20  1  0
  9 21  1  0
  9 22  1  0
 10 23  1  0
 10 24  1  0
 11 25  1  0
 11 26  1  0
M  END
