
 OpenBabel07041902533D

 22 22  0  0  0  0  0  0  0  0999 V2000
   -3.1975   -1.0805   -0.7490 C   0  0  0  0  0  0  0  0  0  0  0  0
   -2.2839   -0.0526   -0.4371 O   0  0  0  0  0  0  0  0  0  0  0  0
   -0.9419   -0.3088   -0.2244 C   0  0  0  0  0  0  0  0  0  0  0  0
   -0.4342   -1.5825   -0.3075 C   0  0  0  0  0  0  0  0  0  0  0  0
    0.9234   -1.8002   -0.0865 C   0  0  0  0  0  0  0  0  0  0  0  0
    1.7669   -0.7533    0.2151 C   0  0  0  0  0  0  0  0  0  0  0  0
    3.1517   -0.9770    0.4403 N   0  0  0  0  0  0  0  0  0  0  0  0
    1.2583    0.5251    0.2987 C   0  0  0  0  0  0  0  0  0  0  0  0
   -0.0927    0.7347    0.0778 C   0  0  0  0  0  0  0  0  0  0  0  0
   -0.6380    2.0049    0.1535 O   0  0  0  0  0  0  0  0  0  0  0  0
    0.2026    3.0900    0.4598 C   0  0  0  0  0  0  0  0  0  0  0  0
   -3.0696   -1.9285   -0.0337 H   0  0  0  0  0  0  0  0  0  0  0  0
   -4.2159   -0.6795   -0.5579 H   0  0  0  0  0  0  0  0  0  0  0  0
   -3.0720   -1.4840   -1.7655 H   0  0  0  0  0  0  0  0  0  0  0  0
   -1.0978   -2.3986   -0.5437 H   0  0  0  0  0  0  0  0  0  0  0  0
    1.3308   -2.8013   -0.1502 H   0  0  0  0  0  0  0  0  0  0  0  0
    3.5634   -0.7303    1.3676 H   0  0  0  0  0  0  0  0  0  0  0  0
    3.7034   -1.3809   -0.3350 H   0  0  0  0  0  0  0  0  0  0  0  0
    1.9051    1.3811    0.5374 H   0  0  0  0  0  0  0  0  0  0  0  0
   -0.3245    4.0628    0.2788 H   0  0  0  0  0  0  0  0  0  0  0  0
    0.4477    3.0349    1.5365 H   0  0  0  0  0  0  0  0  0  0  0  0
    1.1147    3.1245   -0.1752 H   0  0  0  0  0  0  0  0  0  0  0  0
  1  2  1  0  0  0  0
  1 12  1  0  0  0  0
  1 13  1  0  0  0  0
  1 14  1  0  0  0  0
  2  3  1  0  0  0  0
  3  4  2  0  0  0  0
  4  5  1  0  0  0  0
  4 15  1  0  0  0  0
  5  6  2  0  0  0  0
  5 16  1  0  0  0  0
  6  7  1  0  0  0  0
  6  8  1  0  0  0  0
  7 17  1  0  0  0  0
  7 18  1  0  0  0  0
  8  9  2  0  0  0  0
  8 19  1  0  0  0  0
  9 10  1  0  0  0  0
  9  3  1  0  0  0  0
 10 11  1  0  0  0  0
 11 20  1  0  0  0  0
 11 21  1  0  0  0  0
 11 22  1  0  0  0  0
M  END
$$$$
