
     RDKit          3D

 28 28  0  0  0  0  0  0  0  0999 V2000
   -2.3719    1.5610   -1.3143 C   0  0  0  0  0  0  0  0  0  0  0  0
   -1.6043    1.4524   -0.0278 C   0  0  0  0  0  0  0  0  0  0  0  0
   -0.9913    0.1656    0.2338 N   0  0  0  0  0  0  0  0  0  0  0  0
   -1.8406   -0.9382    0.5833 C   0  0  0  0  0  0  0  0  0  0  0  0
   -2.6366   -1.3864   -0.6136 C   0  0  0  0  0  0  0  0  0  0  0  0
    0.4294    0.0255    0.1009 C   0  0  0  0  0  0  0  0  0  0  0  0
    1.0591   -1.1541    0.4825 C   0  0  0  0  0  0  0  0  0  0  0  0
    2.4413   -1.3180    0.3444 C   0  0  0  0  0  0  0  0  0  0  0  0
    3.1469   -0.2609   -0.1858 C   0  0  0  0  0  0  0  0  0  0  0  0
    4.5928   -0.4305   -0.3294 C   0  0  0  0  0  0  0  0  0  0  0  0
    5.1886   -1.4925    0.0122 O   0  0  0  0  0  0  0  0  0  0  0  0
    2.5526    0.8981   -0.5651 C   0  0  0  0  0  0  0  0  0  0  0  0
    1.1693    1.0563   -0.4244 C   0  0  0  0  0  0  0  0  0  0  0  0
   -2.0215    0.8300   -2.0627 H   0  0  0  0  0  0  0  0  0  0  0  0
   -3.4820    1.5301   -1.1892 H   0  0  0  0  0  0  0  0  0  0  0  0
   -2.2048    2.6194   -1.7055 H   0  0  0  0  0  0  0  0  0  0  0  0
   -2.4326    1.6126    0.7760 H   0  0  0  0  0  0  0  0  0  0  0  0
   -0.9127    2.3025    0.1512 H   0  0  0  0  0  0  0  0  0  0  0  0
   -2.6264   -0.5694    1.3397 H   0  0  0  0  0  0  0  0  0  0  0  0
   -1.3722   -1.7675    1.1154 H   0  0  0  0  0  0  0  0  0  0  0  0
   -2.0051   -1.4362   -1.5233 H   0  0  0  0  0  0  0  0  0  0  0  0
   -3.0118   -2.4130   -0.3397 H   0  0  0  0  0  0  0  0  0  0  0  0
   -3.5122   -0.7583   -0.7279 H   0  0  0  0  0  0  0  0  0  0  0  0
    0.5216   -1.9861    0.8956 H   0  0  0  0  0  0  0  0  0  0  0  0
    2.9250   -2.2385    0.6433 H   0  0  0  0  0  0  0  0  0  0  0  0
    5.1789    0.3562   -0.7329 H   0  0  0  0  0  0  0  0  0  0  0  0
    3.1051    1.7496   -0.9893 H   0  0  0  0  0  0  0  0  0  0  0  0
    0.7155    1.9903   -0.7461 H   0  0  0  0  0  0  0  0  0  0  0  0
  1  2  1  0
  2  3  1  0
  3  4  1  0
  4  5  1  0
  3  6  1  0
  6  7  2  0
  7  8  1  0
  8  9  2  0
  9 10  1  0
 10 11  2  0
  9 12  1  0
 12 13  2  0
 13  6  1  0
  1 14  1  0
  1 15  1  0
  1 16  1  0
  2 17  1  0
  2 18  1  0
  4 19  1  0
  4 20  1  0
  5 21  1  0
  5 22  1  0
  5 23  1  0
  7 24  1  0
  8 25  1  0
 10 26  1  0
 12 27  1  0
 13 28  1  0
M  END
