
 OpenBabel07041902533D

 19 18  0  0  0  0  0  0  0  0999 V2000
   -0.6721   -1.2137    0.8018 C   0  0  0  0  0  0  0  0  0  0  0  0
   -0.4432    0.0882    0.1028 C   0  0  2  0  0  0  0  0  0  0  0  0
   -1.7051    0.4660   -0.6410 C   0  0  0  0  0  0  0  0  0  0  0  0
   -1.5547    1.6739   -1.3148 O   0  0  0  0  0  0  0  0  0  0  0  0
    0.7517   -0.0046   -0.7858 C   0  0  0  0  0  0  0  0  0  0  0  0
    1.9494   -0.3430    0.0834 C   0  0  0  0  0  0  0  0  0  0  0  0
    2.1481    0.6567    1.0503 O   0  0  0  0  0  0  0  0  0  0  0  0
   -1.7481   -1.5397    0.7190 H   0  0  0  0  0  0  0  0  0  0  0  0
   -0.0658   -2.0464    0.4032 H   0  0  0  0  0  0  0  0  0  0  0  0
   -0.5062   -1.0521    1.8996 H   0  0  0  0  0  0  0  0  0  0  0  0
   -0.2534    0.9160    0.8299 H   0  0  0  0  0  0  0  0  0  0  0  0
   -2.5621    0.5549    0.0563 H   0  0  0  0  0  0  0  0  0  0  0  0
   -1.9918   -0.2956   -1.3993 H   0  0  0  0  0  0  0  0  0  0  0  0
   -2.3575    2.2367   -1.1812 H   0  0  0  0  0  0  0  0  0  0  0  0
    0.9899    0.9794   -1.2595 H   0  0  0  0  0  0  0  0  0  0  0  0
    0.6771   -0.8094   -1.5416 H   0  0  0  0  0  0  0  0  0  0  0  0
    1.8112   -1.2848    0.6448 H   0  0  0  0  0  0  0  0  0  0  0  0
    2.8826   -0.3700   -0.5417 H   0  0  0  0  0  0  0  0  0  0  0  0
    2.6499    1.3876    0.5904 H   0  0  0  0  0  0  0  0  0  0  0  0
  1  2  1  0  0  0  0
  1  8  1  0  0  0  0
  1  9  1  0  0  0  0
  1 10  1  0  0  0  0
  2  3  1  0  0  0  0
  2  5  1  0  0  0  0
  2 11  1  1  0  0  0
  3  4  1  0  0  0  0
  3 12  1  0  0  0  0
  3 13  1  0  0  0  0
  4 14  1  0  0  0  0
  5  6  1  0  0  0  0
  5 15  1  0  0  0  0
  5 16  1  0  0  0  0
  6  7  1  0  0  0  0
  6 17  1  0  0  0  0
  6 18  1  0  0  0  0
  7 19  1  0  0  0  0
M  END
$$$$
