
     RDKit          3D

 25 25  0  0  0  0  0  0  0  0999 V2000
   -2.5498   -1.4748   -0.2626 C   0  0  0  0  0  0  0  0  0  0  0  0
   -2.1145   -0.0166   -0.3294 C   0  0  0  0  0  0  0  0  0  0  0  0
   -2.8873    0.7427    0.7173 C   0  0  0  0  0  0  0  0  0  0  0  0
   -0.6549    0.0532   -0.1265 C   0  0  0  0  0  0  0  0  0  0  0  0
   -0.0447   -0.3412    1.0396 C   0  0  0  0  0  0  0  0  0  0  0  0
    1.3327   -0.2407    1.1426 C   0  0  0  0  0  0  0  0  0  0  0  0
    2.1277    0.2355    0.1350 C   0  0  0  0  0  0  0  0  0  0  0  0
    3.6009    0.3194    0.3053 C   0  0  0  0  0  0  0  0  0  0  0  0
    4.2083    0.8239   -0.8185 O   0  0  0  0  0  0  0  0  0  0  0  0
    1.5170    0.6311   -1.0342 C   0  0  0  0  0  0  0  0  0  0  0  0
    0.1284    0.5320   -1.1440 C   0  0  0  0  0  0  0  0  0  0  0  0
   -3.5482   -1.5488   -0.7576 H   0  0  0  0  0  0  0  0  0  0  0  0
   -1.8102   -2.1246   -0.7600 H   0  0  0  0  0  0  0  0  0  0  0  0
   -2.6181   -1.7245    0.8212 H   0  0  0  0  0  0  0  0  0  0  0  0
   -2.3928    0.3458   -1.3264 H   0  0  0  0  0  0  0  0  0  0  0  0
   -2.2742    1.5645    1.1470 H   0  0  0  0  0  0  0  0  0  0  0  0
   -3.2175    0.0274    1.5143 H   0  0  0  0  0  0  0  0  0  0  0  0
   -3.8261    1.1648    0.2938 H   0  0  0  0  0  0  0  0  0  0  0  0
   -0.6294   -0.7340    1.8895 H   0  0  0  0  0  0  0  0  0  0  0  0
    1.8079   -0.5596    2.0807 H   0  0  0  0  0  0  0  0  0  0  0  0
    4.0287   -0.6893    0.4932 H   0  0  0  0  0  0  0  0  0  0  0  0
    3.7898    0.9869    1.1720 H   0  0  0  0  0  0  0  0  0  0  0  0
    4.2658    0.1574   -1.5416 H   0  0  0  0  0  0  0  0  0  0  0  0
    2.0895    1.0177   -1.8716 H   0  0  0  0  0  0  0  0  0  0  0  0
   -0.3291    0.8520   -2.0803 H   0  0  0  0  0  0  0  0  0  0  0  0
  1  2  1  0
  2  3  1  0
  2  4  1  0
  4  5  2  0
  5  6  1  0
  6  7  2  0
  7  8  1  0
  8  9  1  0
  7 10  1  0
 10 11  2  0
 11  4  1  0
  1 12  1  0
  1 13  1  0
  1 14  1  0
  2 15  1  0
  3 16  1  0
  3 17  1  0
  3 18  1  0
  5 19  1  0
  6 20  1  0
  8 21  1  0
  8 22  1  0
  9 23  1  0
 10 24  1  0
 11 25  1  0
M  END
