
     RDKit          3D

 24 23  0  0  0  0  0  0  0  0999 V2000
    2.7233   -0.3599    0.2064 C   0  0  0  0  0  0  0  0  0  0  0  0
    1.3955    0.3518    0.0039 C   0  0  0  0  0  0  0  0  0  0  0  0
    1.3337    0.7729   -1.3862 N   0  0  0  0  0  0  0  0  0  0  0  0
    0.3082   -0.6240    0.2616 C   0  0  0  0  0  0  0  0  0  0  0  0
   -1.0784   -0.0779    0.1035 C   0  0  0  0  0  0  0  0  0  0  0  0
   -2.0881   -1.1674    0.3926 C   0  0  0  0  0  0  0  0  0  0  0  0
   -1.3645    1.1105    0.9579 C   0  0  0  0  0  0  0  0  0  0  0  0
   -1.2772    0.3146   -1.2883 N   0  0  0  0  0  0  0  0  0  0  0  0
    2.9222   -1.1153   -0.5737 H   0  0  0  0  0  0  0  0  0  0  0  0
    3.5509    0.3952    0.1760 H   0  0  0  0  0  0  0  0  0  0  0  0
    2.7431   -0.7995    1.2298 H   0  0  0  0  0  0  0  0  0  0  0  0
    1.3983    1.2148    0.6970 H   0  0  0  0  0  0  0  0  0  0  0  0
    1.7720    1.7040   -1.5138 H   0  0  0  0  0  0  0  0  0  0  0  0
    1.8610    0.0587   -1.9361 H   0  0  0  0  0  0  0  0  0  0  0  0
    0.4226   -0.9994    1.3080 H   0  0  0  0  0  0  0  0  0  0  0  0
    0.4310   -1.4821   -0.4200 H   0  0  0  0  0  0  0  0  0  0  0  0
   -1.5701   -2.0196    0.8888 H   0  0  0  0  0  0  0  0  0  0  0  0
   -2.5376   -1.5776   -0.5388 H   0  0  0  0  0  0  0  0  0  0  0  0
   -2.9250   -0.8024    1.0265 H   0  0  0  0  0  0  0  0  0  0  0  0
   -1.1157    2.0826    0.4584 H   0  0  0  0  0  0  0  0  0  0  0  0
   -0.8639    1.0636    1.9465 H   0  0  0  0  0  0  0  0  0  0  0  0
   -2.4584    1.1224    1.1662 H   0  0  0  0  0  0  0  0  0  0  0  0
   -1.8297   -0.4092   -1.8135 H   0  0  0  0  0  0  0  0  0  0  0  0
   -1.7532    1.2432   -1.3529 H   0  0  0  0  0  0  0  0  0  0  0  0
  1  2  1  0
  2  3  1  0
  2  4  1  0
  4  5  1  0
  5  6  1  0
  5  7  1  0
  5  8  1  0
  1  9  1  0
  1 10  1  0
  1 11  1  0
  2 12  1  0
  3 13  1  0
  3 14  1  0
  4 15  1  0
  4 16  1  0
  6 17  1  0
  6 18  1  0
  6 19  1  0
  7 20  1  0
  7 21  1  0
  7 22  1  0
  8 23  1  0
  8 24  1  0
M  END
