
 OpenBabel07041902533D

 24 23  0  0  0  0  0  0  0  0999 V2000
    1.8683    0.1017   -0.9788 C   0  0  0  0  0  0  0  0  0  0  0  0
    1.3948   -0.1722    0.3878 C   0  0  2  0  0  0  0  0  0  0  0  0
    2.3476   -1.0754    1.0583 N   0  0  0  0  0  0  0  0  0  0  0  0
    0.0529   -0.7346    0.5654 C   0  0  0  0  0  0  0  0  0  0  0  0
   -1.1083    0.0257    0.0727 C   0  0  0  0  0  0  0  0  0  0  0  0
   -1.2770    1.3909    0.6879 C   0  0  0  0  0  0  0  0  0  0  0  0
   -1.1696    0.1049   -1.4432 C   0  0  0  0  0  0  0  0  0  0  0  0
   -2.3162   -0.7304    0.4595 N   0  0  0  0  0  0  0  0  0  0  0  0
    2.9892   -0.0590   -1.0046 H   0  0  0  0  0  0  0  0  0  0  0  0
    1.4758   -0.5391   -1.7762 H   0  0  0  0  0  0  0  0  0  0  0  0
    1.7705    1.2027   -1.2189 H   0  0  0  0  0  0  0  0  0  0  0  0
    1.4522    0.7925    0.9741 H   0  0  0  0  0  0  0  0  0  0  0  0
    2.9361   -1.5740    0.3450 H   0  0  0  0  0  0  0  0  0  0  0  0
    2.9524   -0.5799    1.7282 H   0  0  0  0  0  0  0  0  0  0  0  0
   -0.0995   -0.9484    1.6522 H   0  0  0  0  0  0  0  0  0  0  0  0
    0.0220   -1.7488    0.0785 H   0  0  0  0  0  0  0  0  0  0  0  0
   -0.9499    1.3937    1.7376 H   0  0  0  0  0  0  0  0  0  0  0  0
   -0.7722    2.1777    0.0732 H   0  0  0  0  0  0  0  0  0  0  0  0
   -2.3529    1.6683    0.6844 H   0  0  0  0  0  0  0  0  0  0  0  0
   -0.5321    0.9291   -1.8256 H   0  0  0  0  0  0  0  0  0  0  0  0
   -2.1921    0.3115   -1.8105 H   0  0  0  0  0  0  0  0  0  0  0  0
   -0.8939   -0.8882   -1.8648 H   0  0  0  0  0  0  0  0  0  0  0  0
   -3.1598   -0.3426   -0.0591 H   0  0  0  0  0  0  0  0  0  0  0  0
   -2.4384   -0.7062    1.4771 H   0  0  0  0  0  0  0  0  0  0  0  0
  1  2  1  0  0  0  0
  1  9  1  0  0  0  0
  1 10  1  0  0  0  0
  1 11  1  0  0  0  0
  2  3  1  0  0  0  0
  2  4  1  0  0  0  0
  2 12  1  1  0  0  0
  3 13  1  0  0  0  0
  3 14  1  0  0  0  0
  4  5  1  0  0  0  0
  4 15  1  0  0  0  0
  4 16  1  0  0  0  0
  5  6  1  0  0  0  0
  5  7  1  0  0  0  0
  5  8  1  0  0  0  0
  6 17  1  0  0  0  0
  6 18  1  0  0  0  0
  6 19  1  0  0  0  0
  7 20  1  0  0  0  0
  7 21  1  0  0  0  0
  7 22  1  0  0  0  0
  8 23  1  0  0  0  0
  8 24  1  0  0  0  0
M  END
$$$$
