
 OpenBabel07041902533D

 27 28  0  0  0  0  0  0  0  0999 V2000
   -4.0152   -1.6199   -1.4145 O   0  0  0  0  0  0  0  0  0  0  0  0
   -3.2578   -0.5721   -0.8996 C   0  0  0  0  0  0  0  0  0  0  0  0
   -3.8081    0.1306    0.1527 C   0  0  0  0  0  0  0  0  0  0  0  0
   -3.1042    1.1913    0.7160 C   0  0  0  0  0  0  0  0  0  0  0  0
   -3.6201    1.9171    1.7679 O   0  0  0  0  0  0  0  0  0  0  0  0
   -1.8765    1.5158    0.2121 C   0  0  0  0  0  0  0  0  0  0  0  0
   -1.3126    0.8323   -0.8307 C   0  0  0  0  0  0  0  0  0  0  0  0
    0.2814    1.3262   -1.4144 S   0  0  0  0  0  0  0  0  0  0  0  0
    1.5998    0.4633   -0.5577 C   0  0  0  0  0  0  0  0  0  0  0  0
    1.3605   -0.4665    0.4314 C   0  0  0  0  0  0  0  0  0  0  0  0
    2.3824   -1.1305    1.0903 C   0  0  0  0  0  0  0  0  0  0  0  0
    2.0764   -2.0661    2.0882 O   0  0  0  0  0  0  0  0  0  0  0  0
    3.6893   -0.8553    0.7483 C   0  0  0  0  0  0  0  0  0  0  0  0
    3.9550    0.0721   -0.2394 C   0  0  0  0  0  0  0  0  0  0  0  0
    5.2747    0.3398   -0.5740 O   0  0  0  0  0  0  0  0  0  0  0  0
    2.9106    0.7240   -0.8846 C   0  0  0  0  0  0  0  0  0  0  0  0
   -2.0317   -0.2181   -1.3738 C   0  0  0  0  0  0  0  0  0  0  0  0
   -3.6352   -2.1551   -2.1899 H   0  0  0  0  0  0  0  0  0  0  0  0
   -4.7671   -0.0892    0.5793 H   0  0  0  0  0  0  0  0  0  0  0  0
   -4.5280    1.7010    2.1638 H   0  0  0  0  0  0  0  0  0  0  0  0
   -1.3429    2.3415    0.6602 H   0  0  0  0  0  0  0  0  0  0  0  0
    0.3090   -0.6501    0.6667 H   0  0  0  0  0  0  0  0  0  0  0  0
    1.9586   -3.0282    1.7424 H   0  0  0  0  0  0  0  0  0  0  0  0
    4.4633   -1.3911    1.2820 H   0  0  0  0  0  0  0  0  0  0  0  0
    5.5171    1.0033   -1.2827 H   0  0  0  0  0  0  0  0  0  0  0  0
    3.1166    1.4468   -1.6544 H   0  0  0  0  0  0  0  0  0  0  0  0
   -1.5953   -0.7630   -2.1963 H   0  0  0  0  0  0  0  0  0  0  0  0
  1  2  1  0  0  0  0
  1 18  1  0  0  0  0
  2  3  2  0  0  0  0
  3  4  1  0  0  0  0
  3 19  1  0  0  0  0
  4  5  1  0  0  0  0
  4  6  2  0  0  0  0
  5 20  1  0  0  0  0
  6  7  1  0  0  0  0
  6 21  1  0  0  0  0
  7  8  1  0  0  0  0
  7 17  2  0  0  0  0
  8  9  1  0  0  0  0
  9 10  2  0  0  0  0
 10 11  1  0  0  0  0
 10 22  1  0  0  0  0
 11 12  1  0  0  0  0
 11 13  2  0  0  0  0
 12 23  1  0  0  0  0
 13 14  1  0  0  0  0
 13 24  1  0  0  0  0
 14 15  1  0  0  0  0
 14 16  2  0  0  0  0
 15 25  1  0  0  0  0
 16  9  1  0  0  0  0
 16 26  1  0  0  0  0
 17  2  1  0  0  0  0
 17 27  1  0  0  0  0
M  END
$$$$
