
 OpenBabel07041902533D

 32 32  0  0  0  0  0  0  0  0999 V2000
    5.0571    0.1060    0.0726 C   0  0  0  0  0  0  0  0  0  0  0  0
    3.7333   -0.5988   -0.0535 C   0  0  0  0  0  0  0  0  0  0  0  0
    2.5780    0.3070    0.3291 C   0  0  0  0  0  0  0  0  0  0  0  0
    1.2548   -0.4097    0.1845 C   0  0  0  0  0  0  0  0  0  0  0  0
    0.1865    0.4722    0.5700 N   0  0  0  0  0  0  0  0  0  0  0  0
   -1.1207   -0.1177    0.4140 C   0  0  0  0  0  0  0  0  0  0  0  0
   -1.4668   -0.4357   -0.9974 C   0  0  0  0  0  0  0  0  0  0  0  0
   -2.8858   -0.9540   -1.0476 C   0  0  0  0  0  0  0  0  0  0  0  0
   -3.9015    0.0026   -0.5029 C   0  0  0  0  0  0  0  0  0  0  0  0
   -3.2099    1.2306    0.0289 C   0  0  0  0  0  0  0  0  0  0  0  0
   -2.1680    0.7593    1.0170 C   0  0  0  0  0  0  0  0  0  0  0  0
    5.4147    0.3048   -0.9611 H   0  0  0  0  0  0  0  0  0  0  0  0
    4.8942    1.0900    0.5850 H   0  0  0  0  0  0  0  0  0  0  0  0
    5.8055   -0.4752    0.6460 H   0  0  0  0  0  0  0  0  0  0  0  0
    3.6025   -1.0946   -1.0203 H   0  0  0  0  0  0  0  0  0  0  0  0
    3.7803   -1.4447    0.7015 H   0  0  0  0  0  0  0  0  0  0  0  0
    2.7678    0.6848    1.3445 H   0  0  0  0  0  0  0  0  0  0  0  0
    2.6406    1.1877   -0.3730 H   0  0  0  0  0  0  0  0  0  0  0  0
    1.1768   -0.7915   -0.8377 H   0  0  0  0  0  0  0  0  0  0  0  0
    1.2692   -1.2721    0.9007 H   0  0  0  0  0  0  0  0  0  0  0  0
    0.3418    1.0169    1.4128 H   0  0  0  0  0  0  0  0  0  0  0  0
   -1.0908   -1.0664    0.9946 H   0  0  0  0  0  0  0  0  0  0  0  0
   -1.3303    0.4468   -1.6501 H   0  0  0  0  0  0  0  0  0  0  0  0
   -0.8391   -1.2431   -1.4524 H   0  0  0  0  0  0  0  0  0  0  0  0
   -2.9097   -1.8805   -0.4128 H   0  0  0  0  0  0  0  0  0  0  0  0
   -3.1715   -1.1970   -2.1114 H   0  0  0  0  0  0  0  0  0  0  0  0
   -4.5090   -0.4538    0.3295 H   0  0  0  0  0  0  0  0  0  0  0  0
   -4.6466    0.3128   -1.2719 H   0  0  0  0  0  0  0  0  0  0  0  0
   -3.9280    1.8409    0.6011 H   0  0  0  0  0  0  0  0  0  0  0  0
   -2.8259    1.8485   -0.7808 H   0  0  0  0  0  0  0  0  0  0  0  0
   -2.7557    0.1941    1.7998 H   0  0  0  0  0  0  0  0  0  0  0  0
   -1.7436    1.6299    1.5415 H   0  0  0  0  0  0  0  0  0  0  0  0
  1  2  1  0  0  0  0
  1 12  1  0  0  0  0
  1 13  1  0  0  0  0
  1 14  1  0  0  0  0
  2  3  1  0  0  0  0
  2 15  1  0  0  0  0
  2 16  1  0  0  0  0
  3  4  1  0  0  0  0
  3 17  1  0  0  0  0
  3 18  1  0  0  0  0
  4  5  1  0  0  0  0
  4 19  1  0  0  0  0
  4 20  1  0  0  0  0
  5  6  1  0  0  0  0
  5 21  1  0  0  0  0
  6  7  1  0  0  0  0
  6 22  1  0  0  0  0
  7  8  1  0  0  0  0
  7 23  1  0  0  0  0
  7 24  1  0  0  0  0
  8  9  1  0  0  0  0
  8 25  1  0  0  0  0
  8 26  1  0  0  0  0
  9 10  1  0  0  0  0
  9 27  1  0  0  0  0
  9 28  1  0  0  0  0
 10 11  1  0  0  0  0
 10 29  1  0  0  0  0
 10 30  1  0  0  0  0
 11  6  1  0  0  0  0
 11 31  1  0  0  0  0
 11 32  1  0  0  0  0
M  END
$$$$
