
     RDKit          3D

 13 12  0  0  0  0  0  0  0  0999 V2000
   -3.4535    0.0598    0.2961 N   0  0  0  0  0  0  0  0  0  0  0  0
   -2.3393   -0.2629    0.1900 C   0  0  0  0  0  0  0  0  0  0  0  0
   -0.9359   -0.6555    0.0399 C   0  0  0  0  0  0  0  0  0  0  0  0
   -0.8097   -1.5047   -1.0241 F   0  0  0  0  0  0  0  0  0  0  0  0
   -0.5751   -1.3690    1.1695 F   0  0  0  0  0  0  0  0  0  0  0  0
   -0.1273    0.6050   -0.1189 C   0  0  0  0  0  0  0  0  0  0  0  0
   -0.5952    1.2537   -1.2477 F   0  0  0  0  0  0  0  0  0  0  0  0
   -0.2703    1.3941    0.9911 F   0  0  0  0  0  0  0  0  0  0  0  0
    1.3394    0.3567   -0.3342 C   0  0  0  0  0  0  0  0  0  0  0  0
    1.5948   -0.3921   -1.4695 F   0  0  0  0  0  0  0  0  0  0  0  0
    1.9304    1.5923   -0.5564 F   0  0  0  0  0  0  0  0  0  0  0  0
    1.8961   -0.2814    0.8652 C   0  0  0  0  0  0  0  0  0  0  0  0
    2.3456   -0.7959    1.8028 N   0  0  0  0  0  0  0  0  0  0  0  0
  1  2  3  0
  2  3  1  0
  3  4  1  0
  3  5  1  0
  3  6  1  0
  6  7  1  0
  6  8  1  0
  6  9  1  0
  9 10  1  0
  9 11  1  0
  9 12  1  0
 12 13  3  0
M  END
