
 OpenBabel07041901393D

 17 16  0  0  0  0  0  0  0  0999 V2000
   -2.4761    0.2643   -0.1174 C   0  0  0  0  0  0  0  0  0  0  0  0
   -1.2397   -0.5886    0.0286 C   0  0  0  0  0  0  0  0  0  0  0  0
    0.0178    0.2815   -0.0372 C   0  0  0  0  0  0  0  0  0  0  0  0
    1.2432   -0.5940    0.1113 C   0  0  0  0  0  0  0  0  0  0  0  0
    2.4523    0.3476    0.0351 C   0  0  0  0  0  0  0  0  0  0  0  0
   -2.2211    1.2696    0.3211 H   0  0  0  0  0  0  0  0  0  0  0  0
   -3.3377   -0.1088    0.4577 H   0  0  0  0  0  0  0  0  0  0  0  0
   -2.7016    0.4191   -1.1918 H   0  0  0  0  0  0  0  0  0  0  0  0
   -1.1665   -1.3035   -0.8152 H   0  0  0  0  0  0  0  0  0  0  0  0
   -1.2894   -1.0875    1.0103 H   0  0  0  0  0  0  0  0  0  0  0  0
    0.0028    1.0287    0.7627 H   0  0  0  0  0  0  0  0  0  0  0  0
    0.0861    0.7546   -1.0369 H   0  0  0  0  0  0  0  0  0  0  0  0
    1.3258   -1.3398   -0.6959 H   0  0  0  0  0  0  0  0  0  0  0  0
    1.2259   -1.0521    1.1114 H   0  0  0  0  0  0  0  0  0  0  0  0
    2.3900    0.8779   -0.9358 H   0  0  0  0  0  0  0  0  0  0  0  0
    2.3277    1.0838    0.8553 H   0  0  0  0  0  0  0  0  0  0  0  0
    3.3605   -0.2528    0.1367 H   0  0  0  0  0  0  0  0  0  0  0  0
  1  2  1  0  0  0  0
  1  6  1  0  0  0  0
  1  7  1  0  0  0  0
  1  8  1  0  0  0  0
  2  3  1  0  0  0  0
  2  9  1  0  0  0  0
  2 10  1  0  0  0  0
  3  4  1  0  0  0  0
  3 11  1  0  0  0  0
  3 12  1  0  0  0  0
  4  5  1  0  0  0  0
  4 13  1  0  0  0  0
  4 14  1  0  0  0  0
  5 15  1  0  0  0  0
  5 16  1  0  0  0  0
  5 17  1  0  0  0  0
M  END
$$$$
